
     RDKit          3D

 23 23  0  0  0  0  0  0  0  0999 V2000
  -10.2870   -3.8300    5.9730 C   0  0  1  0  0  0  0  0  0  0  0  0
   -9.3550   -2.5860    6.1610 C   0  0  0  0  0  0  0  0  0  0  0  0
   -7.8180   -2.9170    6.1870 C   0  0  0  0  0  0  0  0  0  0  0  0
   -7.1210   -2.5780    4.8100 C   0  0  0  0  0  0  0  0  0  0  0  0
   -6.9930   -3.8100    3.8260 C   0  0  0  0  0  0  0  0  0  0  0  0
   -8.3220   -4.1880    3.0650 C   0  0  0  0  0  0  0  0  0  0  0  0
   -9.3180   -5.0720    3.9150 C   0  0  0  0  0  0  0  0  0  0  0  0
  -10.4930   -4.2440    4.4930 C   0  0  0  0  0  0  0  0  0  0  0  0
   -9.8426   -4.6800    6.5116 H   0  0  0  0  0  0  0  0  0  0  0  0
   -9.5418   -1.8889    5.3308 H   0  0  0  0  0  0  0  0  0  0  0  0
   -9.5987   -2.1601    7.1455 H   0  0  0  0  0  0  0  0  0  0  0  0
   -7.3401   -2.3267    6.9827 H   0  0  0  0  0  0  0  0  0  0  0  0
   -7.7037   -3.9954    6.3716 H   0  0  0  0  0  0  0  0  0  0  0  0
   -7.7103   -1.7961    4.3086 H   0  0  0  0  0  0  0  0  0  0  0  0
   -6.0964   -2.2549    5.0461 H   0  0  0  0  0  0  0  0  0  0  0  0
   -6.2250   -3.5707    3.0757 H   0  0  0  0  0  0  0  0  0  0  0  0
   -6.7343   -4.6790    4.4489 H   0  0  0  0  0  0  0  0  0  0  0  0
   -8.8375   -3.2574    2.7854 H   0  0  0  0  0  0  0  0  0  0  0  0
   -8.0293   -4.7882    2.1909 H   0  0  0  0  0  0  0  0  0  0  0  0
   -9.7269   -5.8636    3.2699 H   0  0  0  0  0  0  0  0  0  0  0  0
   -8.7554   -5.4935    4.7611 H   0  0  0  0  0  0  0  0  0  0  0  0
  -10.6070   -3.3319    3.8887 H   0  0  0  0  0  0  0  0  0  0  0  0
  -11.3881   -4.8823    4.4566 H   0  0  0  0  0  0  0  0  0  0  0  0
  2  1  1  0
  3  2  1  0
  4  3  1  0
  5  4  1  0
  6  5  1  0
  7  6  1  0
  8  7  1  0
  8  1  1  0
  1  9  1  6
  2 10  1  0
  2 11  1  0
  3 12  1  0
  3 13  1  0
  4 14  1  0
  4 15  1  0
  5 16  1  0
  5 17  1  0
  6 18  1  0
  6 19  1  0
  7 20  1  0
  7 21  1  0
  8 22  1  0
  8 23  1  0
M  END
$$$$
